
#======================================================================
# CRYSTAL DATA
#----------------------------------------------------------------------
data_VESTA_phase_1

_chemical_name_common                  'POSCAR file written by OVITO Basic 3.8'
_cell_length_a                         24.070000
_cell_length_b                         24.070000
_cell_length_c                         24.070000
_cell_angle_alpha                      90.000000
_cell_angle_beta                       90.000000
_cell_angle_gamma                      90.000000
_cell_volume                           13945.312613
_space_group_name_H-M_alt              'P 1'
_space_group_IT_number                 1

loop_
_space_group_symop_operation_xyz
   'x, y, z'

loop_
   _atom_site_label
   _atom_site_occupancy
   _atom_site_fract_x
   _atom_site_fract_y
   _atom_site_fract_z
   _atom_site_adp_type
   _atom_site_U_iso_or_equiv
   _atom_site_type_symbol
   C1         1.0     0.738100     0.600800     0.882000    Uiso  ? C
   C2         1.0     0.118000     0.238100     0.899200    Uiso  ? C
   C3         1.0     0.132000     0.649200     0.488100    Uiso  ? C
   C4         1.0     0.882000     0.738100     0.600800    Uiso  ? C
   C5         1.0     0.899200     0.118000     0.238100    Uiso  ? C
   C6         1.0     0.149200     0.011900     0.868000    Uiso  ? C
   C7         1.0     0.600800     0.882000     0.738100    Uiso  ? C
   C8         1.0     0.238100     0.899200     0.118000    Uiso  ? C
   C9         1.0     0.649200     0.488100     0.132000    Uiso  ? C
   C10        1.0     0.261900     0.100800     0.618000    Uiso  ? C
   C11        1.0     0.850800     0.511900     0.632000    Uiso  ? C
   C12        1.0     0.868000     0.149200     0.011900    Uiso  ? C
   C13        1.0     0.511900     0.632000     0.850800    Uiso  ? C
   C14        1.0     0.632000     0.850800     0.511900    Uiso  ? C
   C15        1.0     0.350800     0.988100     0.368000    Uiso  ? C
   C16        1.0     0.761900     0.399200     0.382000    Uiso  ? C
   C17        1.0     0.399200     0.382000     0.761900    Uiso  ? C
   C18        1.0     0.618000     0.261900     0.100800    Uiso  ? C
   C19        1.0     0.100800     0.618000     0.261900    Uiso  ? C
   C20        1.0     0.988100     0.368000     0.350800    Uiso  ? C
   C21        1.0     0.368000     0.350800     0.988100    Uiso  ? C
   C22        1.0     0.488100     0.132000     0.649200    Uiso  ? C
   C23        1.0     0.011900     0.868000     0.149200    Uiso  ? C
   C24        1.0     0.382000     0.761900     0.399200    Uiso  ? C
   C25        1.0     0.786900     0.608100     0.848400    Uiso  ? C
   C26        1.0     0.151600     0.286900     0.891900    Uiso  ? C
   C27        1.0     0.098400     0.641900     0.536900    Uiso  ? C
   C28        1.0     0.848400     0.786900     0.608100    Uiso  ? C
   C29        1.0     0.891900     0.151600     0.286900    Uiso  ? C
   C30        1.0     0.141900     0.963100     0.901600    Uiso  ? C
   C31        1.0     0.608100     0.848400     0.786900    Uiso  ? C
   C32        1.0     0.286900     0.891900     0.151600    Uiso  ? C
   C33        1.0     0.641900     0.536900     0.098400    Uiso  ? C
   C34        1.0     0.213100     0.108100     0.651600    Uiso  ? C
   C35        1.0     0.858100     0.463100     0.598400    Uiso  ? C
   C36        1.0     0.901600     0.141900     0.963100    Uiso  ? C
   C37        1.0     0.463100     0.598400     0.858100    Uiso  ? C
   C38        1.0     0.598400     0.858100     0.463100    Uiso  ? C
   C39        1.0     0.358100     0.036900     0.401600    Uiso  ? C
   C40        1.0     0.713100     0.391900     0.348400    Uiso  ? C
   C41        1.0     0.391900     0.348400     0.713100    Uiso  ? C
   C42        1.0     0.651600     0.213100     0.108100    Uiso  ? C
   C43        1.0     0.108100     0.651600     0.213100    Uiso  ? C
   C44        1.0     0.036900     0.401600     0.358100    Uiso  ? C
   C45        1.0     0.401600     0.358100     0.036900    Uiso  ? C
   C46        1.0     0.536900     0.098400     0.641900    Uiso  ? C
   C47        1.0     0.963100     0.901600     0.141900    Uiso  ? C
   C48        1.0     0.348400     0.713100     0.391900    Uiso  ? C
   C49        1.0     0.646400     0.639100     0.919900    Uiso  ? C
   C50        1.0     0.080100     0.146400     0.860900    Uiso  ? C
   C51        1.0     0.169900     0.610900     0.396400    Uiso  ? C
   C52        1.0     0.919900     0.646400     0.639100    Uiso  ? C
   C53        1.0     0.860900     0.080100     0.146400    Uiso  ? C
   C54        1.0     0.110900     0.103600     0.830100    Uiso  ? C
   C55        1.0     0.639100     0.919900     0.646400    Uiso  ? C
   C56        1.0     0.146400     0.860900     0.080100    Uiso  ? C
   C57        1.0     0.610900     0.396400     0.169900    Uiso  ? C
   C58        1.0     0.353600     0.139100     0.580100    Uiso  ? C
   C59        1.0     0.889100     0.603600     0.669900    Uiso  ? C
   C60        1.0     0.830100     0.110900     0.103600    Uiso  ? C
   C61        1.0     0.603600     0.669900     0.889100    Uiso  ? C
   C62        1.0     0.669900     0.889100     0.603600    Uiso  ? C
   C63        1.0     0.389100     0.896400     0.330100    Uiso  ? C
   C64        1.0     0.853600     0.360900     0.419900    Uiso  ? C
   C65        1.0     0.360900     0.419900     0.853600    Uiso  ? C
   C66        1.0     0.580100     0.353600     0.139100    Uiso  ? C
   C67        1.0     0.139100     0.580100     0.353600    Uiso  ? C
   C68        1.0     0.896400     0.330100     0.389100    Uiso  ? C
   C69        1.0     0.330100     0.389100     0.896400    Uiso  ? C
   C70        1.0     0.396400     0.169900     0.610900    Uiso  ? C
   C71        1.0     0.103600     0.830100     0.110900    Uiso  ? C
   C72        1.0     0.419900     0.853600     0.360900    Uiso  ? C
   C73        1.0     0.798400     0.830100     0.747200    Uiso  ? C
   C74        1.0     0.252800     0.298400     0.669900    Uiso  ? C
   C75        1.0     0.997200     0.419900     0.548400    Uiso  ? C
   C76        1.0     0.747200     0.798400     0.830100    Uiso  ? C
   C77        1.0     0.669900     0.252800     0.298400    Uiso  ? C
   C78        1.0     0.919900     0.951600     0.002800    Uiso  ? C
   C79        1.0     0.830100     0.747200     0.798400    Uiso  ? C
   C80        1.0     0.298400     0.669900     0.252800    Uiso  ? C
   C81        1.0     0.419900     0.548400     0.997200    Uiso  ? C
   C82        1.0     0.201600     0.330100     0.752800    Uiso  ? C
   C83        1.0     0.080100     0.451600     0.497200    Uiso  ? C
   C84        1.0     0.002800     0.919900     0.951600    Uiso  ? C
   C85        1.0     0.451600     0.497200     0.080100    Uiso  ? C
   C86        1.0     0.497200     0.080100     0.451600    Uiso  ? C
   C87        1.0     0.580100     0.048400     0.502800    Uiso  ? C
   C88        1.0     0.701600     0.169900     0.247200    Uiso  ? C
   C89        1.0     0.169900     0.247200     0.701600    Uiso  ? C
   C90        1.0     0.752800     0.201600     0.330100    Uiso  ? C
   C91        1.0     0.330100     0.752800     0.201600    Uiso  ? C
   C92        1.0     0.048400     0.502800     0.580100    Uiso  ? C
   C93        1.0     0.502800     0.580100     0.048400    Uiso  ? C
   C94        1.0     0.548400     0.997200     0.419900    Uiso  ? C
   C95        1.0     0.951600     0.002800     0.919900    Uiso  ? C
   C96        1.0     0.247200     0.701600     0.169900    Uiso  ? C
   C97        1.0     0.766800     0.704000     0.854300    Uiso  ? C
   C98        1.0     0.145700     0.266800     0.796000    Uiso  ? C
   C99        1.0     0.104300     0.546000     0.516800    Uiso  ? C
   C100       1.0     0.854300     0.766800     0.704000    Uiso  ? C
   C101       1.0     0.796000     0.145700     0.266800    Uiso  ? C
   C102       1.0     0.046000     0.983200     0.895700    Uiso  ? C
   C103       1.0     0.704000     0.854300     0.766800    Uiso  ? C
   C104       1.0     0.266800     0.796000     0.145700    Uiso  ? C
   C105       1.0     0.546000     0.516800     0.104300    Uiso  ? C
   C106       1.0     0.233200     0.204000     0.645700    Uiso  ? C
   C107       1.0     0.954000     0.483200     0.604300    Uiso  ? C
   C108       1.0     0.895700     0.046000     0.983200    Uiso  ? C
   C109       1.0     0.483200     0.604300     0.954000    Uiso  ? C
   C110       1.0     0.604300     0.954000     0.483200    Uiso  ? C
   C111       1.0     0.454000     0.016800     0.395700    Uiso  ? C
   C112       1.0     0.733200     0.296000     0.354300    Uiso  ? C
   C113       1.0     0.296000     0.354300     0.733200    Uiso  ? C
   C114       1.0     0.645700     0.233200     0.204000    Uiso  ? C
   C115       1.0     0.204000     0.645700     0.233200    Uiso  ? C
   C116       1.0     0.016800     0.395700     0.454000    Uiso  ? C
   C117       1.0     0.395700     0.454000     0.016800    Uiso  ? C
   C118       1.0     0.516800     0.104300     0.546000    Uiso  ? C
   C119       1.0     0.983200     0.895700     0.046000    Uiso  ? C
   C120       1.0     0.354300     0.733200     0.296000    Uiso  ? C
   C121       1.0     0.687500     0.790200     0.838800    Uiso  ? C
   C122       1.0     0.161200     0.187500     0.709800    Uiso  ? C
   C123       1.0     0.088800     0.459800     0.437500    Uiso  ? C
   C124       1.0     0.838800     0.687500     0.790200    Uiso  ? C
   C125       1.0     0.709800     0.161200     0.187500    Uiso  ? C
   C126       1.0     0.959800     0.062500     0.911200    Uiso  ? C
   C127       1.0     0.790200     0.838800     0.687500    Uiso  ? C
   C128       1.0     0.187500     0.709800     0.161200    Uiso  ? C
   C129       1.0     0.459800     0.437500     0.088800    Uiso  ? C
   C130       1.0     0.312500     0.290200     0.661200    Uiso  ? C
   C131       1.0     0.040200     0.562500     0.588800    Uiso  ? C
   C132       1.0     0.911200     0.959800     0.062500    Uiso  ? C
   C133       1.0     0.562500     0.588800     0.040200    Uiso  ? C
   C134       1.0     0.588800     0.040200     0.562500    Uiso  ? C
   C135       1.0     0.540200     0.937500     0.411200    Uiso  ? C
   C136       1.0     0.812500     0.209800     0.338800    Uiso  ? C
   C137       1.0     0.209800     0.338800     0.812500    Uiso  ? C
   C138       1.0     0.661200     0.312500     0.290200    Uiso  ? C
   C139       1.0     0.290200     0.661200     0.312500    Uiso  ? C
   C140       1.0     0.937500     0.411200     0.540200    Uiso  ? C
   C141       1.0     0.411200     0.540200     0.937500    Uiso  ? C
   C142       1.0     0.437500     0.088800     0.459800    Uiso  ? C
   C143       1.0     0.062500     0.911200     0.959800    Uiso  ? C
   C144       1.0     0.338800     0.812500     0.209800    Uiso  ? C
   C145       1.0     0.964900     0.913600     0.993300    Uiso  ? C
   C146       1.0     0.006700     0.464900     0.586400    Uiso  ? C
   C147       1.0     0.243300     0.336400     0.714900    Uiso  ? C
   C148       1.0     0.993300     0.964900     0.913600    Uiso  ? C
   C149       1.0     0.586400     0.006700     0.464900    Uiso  ? C
   C150       1.0     0.836400     0.785100     0.756700    Uiso  ? C
   C151       1.0     0.913600     0.993300     0.964900    Uiso  ? C
   C152       1.0     0.464900     0.586400     0.006700    Uiso  ? C
   C153       1.0     0.336400     0.714900     0.243300    Uiso  ? C
   C154       1.0     0.035100     0.413600     0.506700    Uiso  ? C
   C155       1.0     0.163600     0.285100     0.743300    Uiso  ? C
   C156       1.0     0.756700     0.836400     0.785100    Uiso  ? C
   C157       1.0     0.285100     0.743300     0.163600    Uiso  ? C
   C158       1.0     0.743300     0.163600     0.285100    Uiso  ? C
   C159       1.0     0.663600     0.214900     0.256700    Uiso  ? C
   C160       1.0     0.535100     0.086400     0.493300    Uiso  ? C
   C161       1.0     0.086400     0.493300     0.535100    Uiso  ? C
   C162       1.0     0.506700     0.035100     0.413600    Uiso  ? C
   C163       1.0     0.413600     0.506700     0.035100    Uiso  ? C
   C164       1.0     0.214900     0.256700     0.663600    Uiso  ? C
   C165       1.0     0.256700     0.663600     0.214900    Uiso  ? C
   C166       1.0     0.714900     0.243300     0.336400    Uiso  ? C
   C167       1.0     0.785100     0.756700     0.836400    Uiso  ? C
   C168       1.0     0.493300     0.535100     0.086400    Uiso  ? C
   C169       1.0     0.713200     0.697600     0.872800    Uiso  ? C
   C170       1.0     0.127200     0.213200     0.802400    Uiso  ? C
   C171       1.0     0.122800     0.552400     0.463200    Uiso  ? C
   C172       1.0     0.872800     0.713200     0.697600    Uiso  ? C
   C173       1.0     0.802400     0.127200     0.213200    Uiso  ? C
   C174       1.0     0.052400     0.036800     0.877200    Uiso  ? C
   C175       1.0     0.697600     0.872800     0.713200    Uiso  ? C
   C176       1.0     0.213200     0.802400     0.127200    Uiso  ? C
   C177       1.0     0.552400     0.463200     0.122800    Uiso  ? C
   C178       1.0     0.286800     0.197600     0.627200    Uiso  ? C
   C179       1.0     0.947600     0.536800     0.622800    Uiso  ? C
   C180       1.0     0.877200     0.052400     0.036800    Uiso  ? C
   C181       1.0     0.536800     0.622800     0.947600    Uiso  ? C
   C182       1.0     0.622800     0.947600     0.536800    Uiso  ? C
   C183       1.0     0.447600     0.963200     0.377200    Uiso  ? C
   C184       1.0     0.786800     0.302400     0.372800    Uiso  ? C
   C185       1.0     0.302400     0.372800     0.786800    Uiso  ? C
   C186       1.0     0.627200     0.286800     0.197600    Uiso  ? C
   C187       1.0     0.197600     0.627200     0.286800    Uiso  ? C
   C188       1.0     0.963200     0.377200     0.447600    Uiso  ? C
   C189       1.0     0.377200     0.447600     0.963200    Uiso  ? C
   C190       1.0     0.463200     0.122800     0.552400    Uiso  ? C
   C191       1.0     0.036800     0.877200     0.052400    Uiso  ? C
   C192       1.0     0.372800     0.786800     0.302400    Uiso  ? C
   C193       1.0     0.671500     0.740100     0.861200    Uiso  ? C
   C194       1.0     0.138800     0.171500     0.759900    Uiso  ? C
   C195       1.0     0.111200     0.509900     0.421500    Uiso  ? C
   C196       1.0     0.861200     0.671500     0.740100    Uiso  ? C
   C197       1.0     0.759900     0.138800     0.171500    Uiso  ? C
   C198       1.0     0.009900     0.078500     0.888800    Uiso  ? C
   C199       1.0     0.740100     0.861200     0.671500    Uiso  ? C
   C200       1.0     0.171500     0.759900     0.138800    Uiso  ? C
   C201       1.0     0.509900     0.421500     0.111200    Uiso  ? C
   C202       1.0     0.328500     0.240100     0.638800    Uiso  ? C
   C203       1.0     0.990100     0.578500     0.611200    Uiso  ? C
   C204       1.0     0.888800     0.009900     0.078500    Uiso  ? C
   C205       1.0     0.578500     0.611200     0.990100    Uiso  ? C
   C206       1.0     0.611200     0.990100     0.578500    Uiso  ? C
   C207       1.0     0.490100     0.921500     0.388800    Uiso  ? C
   C208       1.0     0.828500     0.259900     0.361200    Uiso  ? C
   C209       1.0     0.259900     0.361200     0.828500    Uiso  ? C
   C210       1.0     0.638800     0.328500     0.240100    Uiso  ? C
   C211       1.0     0.240100     0.638800     0.328500    Uiso  ? C
   C212       1.0     0.921500     0.388800     0.490100    Uiso  ? C
   C213       1.0     0.388800     0.490100     0.921500    Uiso  ? C
   C214       1.0     0.421500     0.111200     0.509900    Uiso  ? C
   C215       1.0     0.078500     0.888800     0.009900    Uiso  ? C
   C216       1.0     0.361200     0.828500     0.259900    Uiso  ? C
   C217       1.0     0.801800     0.660200     0.832300    Uiso  ? C
   C218       1.0     0.167700     0.301800     0.839800    Uiso  ? C
   C219       1.0     0.082300     0.589800     0.551800    Uiso  ? C
   C220       1.0     0.832300     0.801800     0.660200    Uiso  ? C
   C221       1.0     0.839800     0.167700     0.301800    Uiso  ? C
   C222       1.0     0.089800     0.948200     0.917700    Uiso  ? C
   C223       1.0     0.660200     0.832300     0.801800    Uiso  ? C
   C224       1.0     0.301800     0.839800     0.167700    Uiso  ? C
   C225       1.0     0.589800     0.551800     0.082300    Uiso  ? C
   C226       1.0     0.198200     0.160200     0.667700    Uiso  ? C
   C227       1.0     0.910200     0.448200     0.582300    Uiso  ? C
   C228       1.0     0.917700     0.089800     0.948200    Uiso  ? C
   C229       1.0     0.448200     0.582300     0.910200    Uiso  ? C
   C230       1.0     0.582300     0.910200     0.448200    Uiso  ? C
   C231       1.0     0.410200     0.051800     0.417700    Uiso  ? C
   C232       1.0     0.698200     0.339800     0.332300    Uiso  ? C
   C233       1.0     0.339800     0.332300     0.698200    Uiso  ? C
   C234       1.0     0.667700     0.198200     0.160200    Uiso  ? C
   C235       1.0     0.160200     0.667700     0.198200    Uiso  ? C
   C236       1.0     0.051800     0.417700     0.410200    Uiso  ? C
   C237       1.0     0.417700     0.410200     0.051800    Uiso  ? C
   C238       1.0     0.551800     0.082300     0.589800    Uiso  ? C
   C239       1.0     0.948200     0.917700     0.089800    Uiso  ? C
   C240       1.0     0.332300     0.698200     0.339800    Uiso  ? C
   C241       1.0     0.614600     0.718900     0.864700    Uiso  ? C
   C242       1.0     0.135300     0.114600     0.781100    Uiso  ? C
   C243       1.0     0.114700     0.531100     0.364600    Uiso  ? C
   C244       1.0     0.864700     0.614600     0.718900    Uiso  ? C
   C245       1.0     0.781100     0.135300     0.114600    Uiso  ? C
   C246       1.0     0.031100     0.135400     0.885300    Uiso  ? C
   C247       1.0     0.718900     0.864700     0.614600    Uiso  ? C
   C248       1.0     0.114600     0.781100     0.135300    Uiso  ? C
   C249       1.0     0.531100     0.364600     0.114700    Uiso  ? C
   C250       1.0     0.385400     0.218900     0.635300    Uiso  ? C
   C251       1.0     0.968900     0.635400     0.614700    Uiso  ? C
   C252       1.0     0.885300     0.031100     0.135400    Uiso  ? C
   C253       1.0     0.635400     0.614700     0.968900    Uiso  ? C
   C254       1.0     0.614700     0.968900     0.635400    Uiso  ? C
   C255       1.0     0.468900     0.864600     0.385300    Uiso  ? C
   C256       1.0     0.885400     0.281100     0.364700    Uiso  ? C
   C257       1.0     0.281100     0.364700     0.885400    Uiso  ? C
   C258       1.0     0.635300     0.385400     0.218900    Uiso  ? C
   C259       1.0     0.218900     0.635300     0.385400    Uiso  ? C
   C260       1.0     0.864600     0.385300     0.468900    Uiso  ? C
   C261       1.0     0.385300     0.468900     0.864600    Uiso  ? C
   C262       1.0     0.364600     0.114700     0.531100    Uiso  ? C
   C263       1.0     0.135400     0.885300     0.031100    Uiso  ? C
   C264       1.0     0.364700     0.885400     0.281100    Uiso  ? C
   C265       1.0     0.701300     0.643000     0.892700    Uiso  ? C
   C266       1.0     0.107300     0.201300     0.857000    Uiso  ? C
   C267       1.0     0.142700     0.607000     0.451300    Uiso  ? C
   C268       1.0     0.892700     0.701300     0.643000    Uiso  ? C
   C269       1.0     0.857000     0.107300     0.201300    Uiso  ? C
   C270       1.0     0.107000     0.048700     0.857300    Uiso  ? C
   C271       1.0     0.643000     0.892700     0.701300    Uiso  ? C
   C272       1.0     0.201300     0.857000     0.107300    Uiso  ? C
   C273       1.0     0.607000     0.451300     0.142700    Uiso  ? C
   C274       1.0     0.298700     0.143000     0.607300    Uiso  ? C
   C275       1.0     0.893000     0.548700     0.642700    Uiso  ? C
   C276       1.0     0.857300     0.107000     0.048700    Uiso  ? C
   C277       1.0     0.548700     0.642700     0.893000    Uiso  ? C
   C278       1.0     0.642700     0.893000     0.548700    Uiso  ? C
   C279       1.0     0.393000     0.951300     0.357300    Uiso  ? C
   C280       1.0     0.798700     0.357000     0.392700    Uiso  ? C
   C281       1.0     0.357000     0.392700     0.798700    Uiso  ? C
   C282       1.0     0.607300     0.298700     0.143000    Uiso  ? C
   C283       1.0     0.143000     0.607300     0.298700    Uiso  ? C
   C284       1.0     0.951300     0.357300     0.393000    Uiso  ? C
   C285       1.0     0.357300     0.393000     0.951300    Uiso  ? C
   N1         1.0     0.451300     0.142700     0.607000    Uiso  ? N
   N2         1.0     0.048700     0.857300     0.107000    Uiso  ? N
   N3         1.0     0.392700     0.798700     0.357000    Uiso  ? N
   H1         1.0     0.558800     0.897300     0.729200    Uiso  ? H
   H2         1.0     0.270800     0.058800     0.602700    Uiso  ? H
   H3         1.0     0.979200     0.352700     0.308800    Uiso  ? H
   H4         1.0     0.729200     0.558800     0.897300    Uiso  ? H
   H5         1.0     0.602700     0.270800     0.058800    Uiso  ? H
   H6         1.0     0.852700     0.191200     0.020800    Uiso  ? H
   H7         1.0     0.897300     0.729200     0.558800    Uiso  ? H
   H8         1.0     0.058800     0.602700     0.270800    Uiso  ? H
   H9         1.0     0.352700     0.308800     0.979200    Uiso  ? H
   H10        1.0     0.441200     0.397300     0.770800    Uiso  ? H
   H11        1.0     0.147300     0.691200     0.479200    Uiso  ? H
   H12        1.0     0.020800     0.852700     0.191200    Uiso  ? H
   H13        1.0     0.691200     0.479200     0.147300    Uiso  ? H
   H14        1.0     0.479200     0.147300     0.691200    Uiso  ? H
   H15        1.0     0.647300     0.808800     0.520800    Uiso  ? H
   H16        1.0     0.941200     0.102700     0.229200    Uiso  ? H
   H17        1.0     0.102700     0.229200     0.941200    Uiso  ? H
   H18        1.0     0.770800     0.441200     0.397300    Uiso  ? H
   H19        1.0     0.397300     0.770800     0.441200    Uiso  ? H
   H20        1.0     0.808800     0.520800     0.647300    Uiso  ? H
   H21        1.0     0.520800     0.647300     0.808800    Uiso  ? H
   H22        1.0     0.308800     0.979200     0.352700    Uiso  ? H
   H23        1.0     0.191200     0.020800     0.852700    Uiso  ? H
   H24        1.0     0.229200     0.941200     0.102700    Uiso  ? H
   H25        1.0     0.571200     0.836200     0.810100    Uiso  ? H
   H26        1.0     0.189900     0.071200     0.663800    Uiso  ? H
   H27        1.0     0.060100     0.413800     0.321200    Uiso  ? H
   H28        1.0     0.810100     0.571200     0.836200    Uiso  ? H
   H29        1.0     0.663800     0.189900     0.071200    Uiso  ? H
   H30        1.0     0.913800     0.178800     0.939900    Uiso  ? H
   H31        1.0     0.836200     0.810100     0.571200    Uiso  ? H
   H32        1.0     0.071200     0.663800     0.189900    Uiso  ? H
   H33        1.0     0.413800     0.321200     0.060100    Uiso  ? H
   H34        1.0     0.428800     0.336200     0.689900    Uiso  ? H
   H35        1.0     0.086200     0.678800     0.560100    Uiso  ? H
   H36        1.0     0.939900     0.913800     0.178800    Uiso  ? H
   H37        1.0     0.678800     0.560100     0.086200    Uiso  ? H
   H38        1.0     0.560100     0.086200     0.678800    Uiso  ? H
   H39        1.0     0.586200     0.821200     0.439900    Uiso  ? H
   H40        1.0     0.928800     0.163800     0.310100    Uiso  ? H
   H41        1.0     0.163800     0.310100     0.928800    Uiso  ? H
   H42        1.0     0.689900     0.428800     0.336200    Uiso  ? H
   H43        1.0     0.336200     0.689900     0.428800    Uiso  ? H
   H44        1.0     0.821200     0.439900     0.586200    Uiso  ? H
   H45        1.0     0.439900     0.586200     0.821200    Uiso  ? H
   H46        1.0     0.321200     0.060100     0.413800    Uiso  ? H
   H47        1.0     0.178800     0.939900     0.913800    Uiso  ? H
   H48        1.0     0.310100     0.928800     0.163800    Uiso  ? H
   H49        1.0     0.581800     0.743600     0.844900    Uiso  ? H
   H50        1.0     0.155100     0.081800     0.756400    Uiso  ? H
   H51        1.0     0.094900     0.506400     0.331800    Uiso  ? H
   H52        1.0     0.844900     0.581800     0.743600    Uiso  ? H
   H53        1.0     0.756400     0.155100     0.081800    Uiso  ? H
   H54        1.0     0.006400     0.168200     0.905100    Uiso  ? H
   H55        1.0     0.743600     0.844900     0.581800    Uiso  ? H
   H56        1.0     0.081800     0.756400     0.155100    Uiso  ? H
   H57        1.0     0.506400     0.331800     0.094900    Uiso  ? H
   H58        1.0     0.418200     0.243600     0.655100    Uiso  ? H
   H59        1.0     0.993600     0.668200     0.594900    Uiso  ? H
   H60        1.0     0.905100     0.006400     0.168200    Uiso  ? H
   H61        1.0     0.668200     0.594900     0.993600    Uiso  ? H
   H62        1.0     0.594900     0.993600     0.668200    Uiso  ? H
   H63        1.0     0.493600     0.831800     0.405100    Uiso  ? H
   H64        1.0     0.918200     0.256400     0.344900    Uiso  ? H
   H65        1.0     0.256400     0.344900     0.918200    Uiso  ? H
   H66        1.0     0.655100     0.418200     0.243600    Uiso  ? H
   H67        1.0     0.243600     0.655100     0.418200    Uiso  ? H
   H68        1.0     0.831800     0.405100     0.493600    Uiso  ? H
   H69        1.0     0.405100     0.493600     0.831800    Uiso  ? H
   H70        1.0     0.331800     0.094900     0.506400    Uiso  ? H
   H71        1.0     0.168200     0.905100     0.006400    Uiso  ? H
   H72        1.0     0.344900     0.918200     0.256400    Uiso  ? H
