
#======================================================================
# CRYSTAL DATA
#----------------------------------------------------------------------
data_VESTA_phase_1

_chemical_name_common                  'ZTC Model-I'
_cell_length_a                         24.070000
_cell_length_b                         24.070000
_cell_length_c                         24.070000
_cell_angle_alpha                      90.000000
_cell_angle_beta                       90.000000
_cell_angle_gamma                      90.000000
_cell_volume                           13945.312613
_space_group_name_H-M_alt              'P 21 21 21'
_space_group_IT_number                 19

loop_
_space_group_symop_operation_xyz
   'x, y, z'
   '-x+1/2, -y, z+1/2'
   '-x, y+1/2, -z+1/2'
   'x+1/2, -y+1/2, -z'

loop_
   _atom_site_label
   _atom_site_occupancy
   _atom_site_fract_x
   _atom_site_fract_y
   _atom_site_fract_z
   _atom_site_adp_type
   _atom_site_U_iso_or_equiv
   _atom_site_type_symbol
   C1H        1.0     0.738100     0.600800     0.882000    Uiso  ? C
   C1H        1.0     0.882000     0.738100     0.600800    Uiso  ? C
   C1H        1.0     0.600800     0.882000     0.738100    Uiso  ? C
   C1H        1.0     0.350800     0.988100     0.368000    Uiso  ? C
   C1H        1.0     0.488100     0.132000     0.649200    Uiso  ? C
   C1H        1.0     0.632000     0.850800     0.511900    Uiso  ? C
   C2H        1.0     0.786900     0.608100     0.848400    Uiso  ? C
   C2H        1.0     0.848400     0.786900     0.608100    Uiso  ? C
   C2H        1.0     0.608100     0.848400     0.786900    Uiso  ? C
   C2H        1.0     0.358100     0.036900     0.401600    Uiso  ? C
   C2H        1.0     0.536900     0.098400     0.641900    Uiso  ? C
   C2H        1.0     0.598400     0.858100     0.463100    Uiso  ? C
   C3H        1.0     0.614600     0.718900     0.864700    Uiso  ? C
   C3H        1.0     0.864700     0.614600     0.718900    Uiso  ? C
   C3H        1.0     0.718900     0.864700     0.614600    Uiso  ? C
   C3H        1.0     0.468900     0.864600     0.385300    Uiso  ? C
   C3H        1.0     0.364600     0.114700     0.531100    Uiso  ? C
   C3H        1.0     0.614700     0.968900     0.635400    Uiso  ? C
   C1         1.0     0.646400     0.639100     0.919900    Uiso  ? C
   C1         1.0     0.919900     0.646400     0.639100    Uiso  ? C
   C1         1.0     0.639100     0.919900     0.646400    Uiso  ? C
   C1         1.0     0.389100     0.896400     0.330100    Uiso  ? C
   C1         1.0     0.396400     0.169900     0.610900    Uiso  ? C
   C1         1.0     0.669900     0.889100     0.603600    Uiso  ? C
   C2         1.0     0.798400     0.830100     0.747200    Uiso  ? C
   C2         1.0     0.747200     0.798400     0.830100    Uiso  ? C
   C2         1.0     0.830100     0.747200     0.798400    Uiso  ? C
   C2         1.0     0.580100     0.048400     0.502800    Uiso  ? C
   C2         1.0     0.548400     0.997200     0.419900    Uiso  ? C
   C2         1.0     0.497200     0.080100     0.451600    Uiso  ? C
   C3         1.0     0.766800     0.704000     0.854300    Uiso  ? C
   C3         1.0     0.854300     0.766800     0.704000    Uiso  ? C
   C3         1.0     0.704000     0.854300     0.766800    Uiso  ? C
   C3         1.0     0.454000     0.016800     0.395700    Uiso  ? C
   C3         1.0     0.516800     0.104300     0.546000    Uiso  ? C
   C3         1.0     0.604300     0.954000     0.483200    Uiso  ? C
   C4         1.0     0.687500     0.790200     0.838800    Uiso  ? C
   C4         1.0     0.838800     0.687500     0.790200    Uiso  ? C
   C4         1.0     0.790200     0.838800     0.687500    Uiso  ? C
   C4         1.0     0.540200     0.937500     0.411200    Uiso  ? C
   C4         1.0     0.437500     0.088800     0.459800    Uiso  ? C
   C4         1.0     0.588800     0.040200     0.562500    Uiso  ? C
   C5         1.0     0.964900     0.913600     0.993300    Uiso  ? C
   C5         1.0     0.993300     0.964900     0.913600    Uiso  ? C
   C5         1.0     0.913600     0.993300     0.964900    Uiso  ? C
   C5         1.0     0.663600     0.214900     0.256700    Uiso  ? C
   C5         1.0     0.714900     0.243300     0.336400    Uiso  ? C
   C5         1.0     0.743300     0.163600     0.285100    Uiso  ? C
   C6         1.0     0.713200     0.697600     0.872800    Uiso  ? C
   C6         1.0     0.872800     0.713200     0.697600    Uiso  ? C
   C6         1.0     0.697600     0.872800     0.713200    Uiso  ? C
   C6         1.0     0.447600     0.963200     0.377200    Uiso  ? C
   C6         1.0     0.463200     0.122800     0.552400    Uiso  ? C
   C6         1.0     0.622800     0.947600     0.536800    Uiso  ? C
   C7         1.0     0.671500     0.740100     0.861200    Uiso  ? C
   C7         1.0     0.861200     0.671500     0.740100    Uiso  ? C
   C7         1.0     0.740100     0.861200     0.671500    Uiso  ? C
   C7         1.0     0.490100     0.921500     0.388800    Uiso  ? C
   C7         1.0     0.421500     0.111200     0.509900    Uiso  ? C
   C7         1.0     0.611200     0.990100     0.578500    Uiso  ? C
   C8         1.0     0.801800     0.660200     0.832300    Uiso  ? C
   C8         1.0     0.832300     0.801800     0.660200    Uiso  ? C
   C8         1.0     0.660200     0.832300     0.801800    Uiso  ? C
   C8         1.0     0.410200     0.051800     0.417700    Uiso  ? C
   C8         1.0     0.551800     0.082300     0.589800    Uiso  ? C
   C8         1.0     0.582300     0.910200     0.448200    Uiso  ? C
   C9         1.0     0.701300     0.643000     0.892700    Uiso  ? C
   C9         1.0     0.892700     0.701300     0.643000    Uiso  ? C
   C9         1.0     0.643000     0.892700     0.701300    Uiso  ? C
   C9         1.0     0.393000     0.951300     0.357300    Uiso  ? C
   C9         1.0     0.451300     0.142700     0.607000    Uiso  ? C
   C9         1.0     0.642700     0.893000     0.548700    Uiso  ? C
   H1         1.0     0.558800     0.897300     0.729200    Uiso  ? H
   H1         1.0     0.729200     0.558800     0.897300    Uiso  ? H
   H1         1.0     0.897300     0.729200     0.558800    Uiso  ? H
   H1         1.0     0.647300     0.808800     0.520800    Uiso  ? H
   H1         1.0     0.308800     0.979200     0.352700    Uiso  ? H
   H1         1.0     0.479200     0.147300     0.691200    Uiso  ? H
   H2         1.0     0.571200     0.836200     0.810100    Uiso  ? H
   H2         1.0     0.810100     0.571200     0.836200    Uiso  ? H
   H2         1.0     0.836200     0.810100     0.571200    Uiso  ? H
   H2         1.0     0.586200     0.821200     0.439900    Uiso  ? H
   H2         1.0     0.321200     0.060100     0.413800    Uiso  ? H
   H2         1.0     0.560100     0.086200     0.678800    Uiso  ? H
   H3         1.0     0.581800     0.743600     0.844900    Uiso  ? H
   H3         1.0     0.844900     0.581800     0.743600    Uiso  ? H
   H3         1.0     0.743600     0.844900     0.581800    Uiso  ? H
   H3         1.0     0.493600     0.831800     0.405100    Uiso  ? H
   H3         1.0     0.331800     0.094900     0.506400    Uiso  ? H
   H3         1.0     0.594900     0.993600     0.668200    Uiso  ? H
