
#======================================================================
# CRYSTAL DATA
#----------------------------------------------------------------------
data_VESTA_phase_1

_chemical_name_common                  'ZTC Model-I'
_cell_length_a                         24.070000
_cell_length_b                         24.070000
_cell_length_c                         24.070000
_cell_angle_alpha                      90.000000
_cell_angle_beta                       90.000000
_cell_angle_gamma                      90.000000
_cell_volume                           13945.312613
_space_group_name_H-M_alt              'P 41 3 2'
_space_group_IT_number                 213

loop_
_space_group_symop_operation_xyz
   'x, y, z'
   '-x+1/2, -y, z+1/2'
   '-x, y+1/2, -z+1/2'
   'x+1/2, -y+1/2, -z'
   'z, x, y'
   'z+1/2, -x+1/2, -y'
   '-z+1/2, -x, y+1/2'
   '-z, x+1/2, -y+1/2'
   'y, z, x'
   '-y, z+1/2, -x+1/2'
   'y+1/2, -z+1/2, -x'
   '-y+1/2, -z, x+1/2'
   'y+3/4, x+1/4, -z+1/4'
   '-y+3/4, -x+3/4, -z+3/4'
   'y+1/4, -x+1/4, z+3/4'
   '-y+1/4, x+3/4, z+1/4'
   'x+3/4, z+1/4, -y+1/4'
   '-x+1/4, z+3/4, y+1/4'
   '-x+3/4, -z+3/4, -y+3/4'
   'x+1/4, -z+1/4, y+3/4'
   'z+3/4, y+1/4, -x+1/4'
   'z+1/4, -y+1/4, x+3/4'
   '-z+1/4, y+3/4, x+1/4'
   '-z+3/4, -y+3/4, -x+3/4'

loop_
   _atom_site_label
   _atom_site_occupancy
   _atom_site_fract_x
   _atom_site_fract_y
   _atom_site_fract_z
   _atom_site_adp_type
   _atom_site_U_iso_or_equiv
   _atom_site_type_symbol
   C1H        1.0     0.738100     0.600800     0.882000    Uiso  ? C
   C2H        1.0     0.786900     0.608100     0.848400    Uiso  ? C
   C3H        1.0     0.614600     0.718900     0.864700    Uiso  ? C
   C1         1.0     0.646400     0.639100     0.919900    Uiso  ? C
   C2         1.0     0.798400     0.830100     0.747200    Uiso  ? N
   C3         1.0     0.766800     0.704000     0.854300    Uiso  ? C
   C4         1.0     0.687500     0.790200     0.838800    Uiso  ? C
   C5         1.0     0.964900     0.913600     0.993300    Uiso  ? C
   C6         1.0     0.713200     0.697600     0.872800    Uiso  ? C
   C7         1.0     0.671500     0.740100     0.861200    Uiso  ? C
   C8         1.0     0.801800     0.660200     0.832300    Uiso  ? C
   C9         1.0     0.701300     0.643000     0.892700    Uiso  ? C
   H1         1.0     0.558800     0.897300     0.729200    Uiso  ? H
   H2         1.0     0.571200     0.836200     0.810100    Uiso  ? H
   H3         1.0     0.581800     0.743600     0.844900    Uiso  ? H
